Version 4.1
SHEET 1 972 680
WIRE -400 -240 -560 -240
WIRE -304 -240 -400 -240
WIRE -112 -240 -304 -240
WIRE 64 -240 -112 -240
WIRE -560 -224 -560 -240
WIRE -400 -224 -400 -240
WIRE -112 -224 -112 -240
WIRE -304 -160 -304 -240
WIRE -256 -160 -304 -160
WIRE 64 -160 64 -240
WIRE 64 -160 32 -160
WIRE -304 -144 -304 -160
WIRE 64 -144 64 -160
WIRE -560 -128 -560 -144
WIRE -400 -128 -400 -160
WIRE -304 -64 -304 -80
WIRE -256 -64 -304 -64
WIRE 64 -64 64 -80
WIRE 64 -64 32 -64
WIRE -304 -48 -304 -64
WIRE 64 -48 64 -64
WIRE -336 32 -352 32
WIRE -256 32 -272 32
WIRE 224 32 32 32
WIRE -256 128 -352 128
WIRE 64 128 32 128
WIRE -352 144 -352 128
WIRE 64 144 64 128
WIRE -384 224 -464 224
WIRE -256 224 -304 224
WIRE 64 224 64 208
WIRE 64 224 32 224
WIRE 112 224 64 224
WIRE 224 224 224 32
WIRE 224 224 192 224
WIRE 336 224 224 224
WIRE 384 224 336 224
WIRE 432 224 384 224
WIRE 528 224 432 224
WIRE 224 240 224 224
WIRE 336 240 336 224
WIRE 432 240 432 224
WIRE 528 240 528 224
WIRE -336 320 -352 320
WIRE -256 320 -272 320
WIRE 224 320 32 320
WIRE 336 320 336 304
WIRE 336 320 224 320
WIRE 224 336 224 320
WIRE 432 336 432 304
WIRE 528 336 528 320
WIRE -160 400 -160 384
WIRE -64 400 -64 384
WIRE 224 432 224 416
WIRE -160 496 -160 480
WIRE -464 576 -464 224
WIRE 384 576 384 224
WIRE 384 576 -464 576
FLAG -64 400 0
FLAG -160 496 0
FLAG -400 -128 0
FLAG -352 32 0
FLAG 432 336 0
FLAG 224 432 0
FLAG 528 336 0
FLAG 528 224 OUT
FLAG -560 -240 IN
FLAG -304 -48 0
FLAG 64 -48 0
FLAG -352 320 0
FLAG -560 -128 0
FLAG -352 144 0
SYMBOL res -176 384 R0
SYMATTR InstName R1
SYMATTR Value 41.2K
SYMBOL voltage -560 -240 R0
WINDOW 123 0 0 Left 0
WINDOW 39 0 0 Left 0
SYMATTR InstName V1
SYMATTR Value 24
SYMBOL cap -272 48 M270
WINDOW 0 32 32 VTop 2
WINDOW 3 0 32 VBottom 2
SYMATTR InstName C1
SYMATTR Value 1µ
SYMBOL ind 96 240 R270
WINDOW 0 32 56 VTop 2
WINDOW 3 5 56 VBottom 2
SYMATTR InstName L1
SYMATTR Value 1.5µ
SYMATTR SpiceLine Rser=10m
SYMBOL cap 48 144 R0
SYMATTR InstName C2
SYMATTR Value .1µ
SYMBOL cap 416 240 R0
SYMATTR InstName C3
SYMATTR Value 100µ
SYMATTR SpiceLine Irms=0 Lser=0
SYMBOL res 208 224 R0
SYMATTR InstName R2
SYMATTR Value 1Meg
SYMBOL res 208 320 R0
SYMATTR InstName R3
SYMATTR Value 243K
SYMBOL cap 320 240 R0
SYMATTR InstName C4
SYMATTR Value 10p
SYMBOL cap -320 -144 R0
SYMATTR InstName C5
SYMATTR Value 1µ
SYMBOL cap 48 -144 R0
SYMATTR InstName C6
SYMATTR Value 1µ
SYMBOL cap -272 336 M270
WINDOW 0 32 32 VTop 2
WINDOW 3 0 32 VBottom 2
SYMATTR InstName C7
SYMATTR Value 1n
SYMBOL LT8640 -112 80 R0
SYMATTR InstName U1
SYMBOL cap -416 -224 R0
SYMATTR InstName C8
SYMATTR Value 10µ
SYMBOL res -288 208 R90
WINDOW 0 0 56 VBottom 2
WINDOW 3 32 56 VTop 2
SYMATTR InstName R4
SYMATTR Value 100k
SYMBOL load2 528 240 R0
WINDOW 123 0 0 Left 0
WINDOW 39 0 0 Left 0
SYMATTR InstName I1
SYMATTR Value PULSE(0.5 2 1.5m 100u 100u 300u)
TEXT 400 440 Left 2 !.tran 2.5m startup
