Version 4.1
SHEET 1 1028 680
WIRE -16 -272 -128 -272
WIRE 208 -272 -16 -272
WIRE 448 -272 208 -272
WIRE 208 -208 208 -272
WIRE -128 -144 -128 -272
WIRE -16 -144 -16 -272
WIRE 64 -144 -16 -144
WIRE 448 -144 448 -272
WIRE 448 -144 352 -144
WIRE -16 -128 -16 -144
WIRE 448 -128 448 -144
WIRE -16 -48 -16 -64
WIRE 64 -48 -16 -48
WIRE 448 -48 448 -64
WIRE 448 -48 352 -48
WIRE -128 -16 -128 -64
WIRE -16 -16 -16 -48
WIRE 448 -16 448 -48
WIRE -32 48 -80 48
WIRE 64 48 32 48
WIRE 624 48 352 48
WIRE -80 64 -80 48
WIRE 416 144 352 144
WIRE 416 160 416 144
WIRE 416 240 416 224
WIRE 416 240 352 240
WIRE 464 240 416 240
WIRE 624 240 624 48
WIRE 624 240 544 240
WIRE 752 240 624 240
WIRE 848 240 752 240
WIRE 944 240 848 240
WIRE 960 240 944 240
WIRE 752 256 752 240
WIRE 848 256 848 240
WIRE 944 272 944 240
WIRE -32 336 -80 336
WIRE 64 336 32 336
WIRE 624 336 624 320
WIRE 624 336 352 336
WIRE 752 336 752 320
WIRE 752 336 624 336
WIRE -80 352 -80 336
WIRE 624 352 624 336
WIRE 848 368 848 320
WIRE 944 368 944 336
WIRE 944 368 848 368
WIRE 848 384 848 368
WIRE 160 432 160 400
WIRE 256 448 256 400
WIRE 624 480 624 432
WIRE 160 560 160 512
FLAG 448 -16 0
FLAG -128 -16 0
FLAG -16 -16 0
FLAG -80 64 0
FLAG -80 352 0
FLAG 256 448 0
FLAG 160 560 0
FLAG 624 480 0
FLAG 848 384 0
FLAG 960 240 Out
DATAFLAG 912 240 ""
SYMBOL PowerProducts\\LT8614 208 96 R0
SYMATTR InstName U1
SYMBOL voltage -128 -160 R0
WINDOW 123 0 0 Left 0
WINDOW 39 0 0 Left 0
SYMATTR InstName V1
SYMATTR Value 12
SYMBOL cap 432 -128 R0
SYMATTR InstName C1
SYMATTR Value .1µ
SYMBOL cap -32 -128 R0
SYMATTR InstName C2
SYMATTR Value .1µ
SYMBOL cap 32 32 R90
WINDOW 0 0 32 VBottom 2
WINDOW 3 32 32 VTop 2
SYMATTR InstName C3
SYMATTR Value 1µ
SYMBOL cap 32 320 R90
WINDOW 0 0 32 VBottom 2
WINDOW 3 32 32 VTop 2
SYMATTR InstName C4
SYMATTR Value 1n
SYMBOL cap 432 224 R180
WINDOW 0 24 56 Left 2
WINDOW 3 24 8 Left 2
SYMATTR InstName C5
SYMATTR Value .1µ
SYMBOL res 144 416 R0
SYMATTR InstName R1
SYMATTR Value 18.2k
SYMBOL ind 560 224 R90
WINDOW 0 5 56 VBottom 2
WINDOW 3 32 56 VTop 2
SYMATTR InstName L1
SYMATTR Value 1µ
SYMBOL res 608 224 R0
SYMATTR InstName R2
SYMATTR Value 1Meg
SYMBOL res 608 336 R0
SYMATTR InstName R3
SYMATTR Value 412k
SYMBOL cap 736 256 R0
SYMATTR InstName C6
SYMATTR Value 4.7p
SYMBOL cap 832 256 R0
SYMATTR InstName C7
SYMATTR Value 47µ
SYMBOL load 928 272 R0
WINDOW 123 0 0 Left 0
WINDOW 39 0 0 Left 0
SYMATTR InstName I1
SYMATTR Value 4
TEXT 784 160 Left 2 !.tran 750u startup
