Version 4.1
SHEET 1 880 680
WIRE -688 -160 -864 -160
WIRE -688 -128 -688 -160
WIRE -864 -64 -864 -160
WIRE -864 -64 -992 -64
WIRE -832 -64 -864 -64
WIRE -512 -64 -544 -64
WIRE -992 -48 -992 -64
WIRE -512 32 -512 -64
WIRE -512 32 -544 32
WIRE -992 48 -992 32
WIRE -928 128 -944 128
WIRE -832 128 -864 128
WIRE -416 128 -544 128
WIRE -336 128 -416 128
WIRE -416 144 -416 128
WIRE -336 144 -336 128
WIRE -928 224 -944 224
WIRE -832 224 -848 224
WIRE -496 224 -544 224
WIRE -496 240 -496 224
WIRE -416 240 -416 208
WIRE -336 240 -336 224
WIRE -640 304 -640 288
WIRE -496 336 -496 320
FLAG -992 48 0
FLAG -416 240 0
FLAG -336 240 0
FLAG -496 336 0
FLAG -640 304 0
FLAG -944 224 0
FLAG -944 128 0
FLAG -336 128 OUT
FLAG -992 -64 IN
SYMBOL PowerProducts\\LTM8065 -688 80 R0
SYMATTR InstName U2
SYMBOL voltage -992 -64 R0
SYMATTR InstName V1
SYMATTR Value 12
SYMBOL res -512 224 R0
SYMATTR InstName R1
SYMATTR Value 60.4K
SYMBOL cap -432 144 R0
SYMATTR InstName C1
SYMATTR Value 22µ
SYMBOL res -832 208 R90
WINDOW 0 0 56 VBottom 2
WINDOW 3 32 56 VTop 2
SYMATTR InstName R3
SYMATTR Value 41.2K
SYMBOL cap -864 112 R90
WINDOW 0 0 32 VBottom 2
WINDOW 3 32 32 VTop 2
SYMATTR InstName C2
SYMATTR Value 1n
SYMBOL load2 -336 144 R0
WINDOW 123 0 0 Left 0
WINDOW 39 0 0 Left 0
SYMATTR InstName I1
SYMATTR Value PULSE(0.5 2 800u 100u 100u 300u)
TEXT -440 384 Left 2 !.tran 1.5m startup
TEXT -440 416 Left 2 !.meas TRAN A pp V(out) from 0.6m to 1.5m
