Version 4.1
SHEET 1 880 680
WIRE 176 16 144 16
WIRE 352 16 256 16
WIRE 16 128 -16 128
WIRE 144 128 144 16
WIRE 144 128 96 128
WIRE 192 128 144 128
WIRE 352 144 352 16
WIRE 352 144 256 144
WIRE 464 144 352 144
WIRE 192 160 128 160
WIRE 128 224 128 160
WIRE -480 352 -480 304
WIRE -320 352 -320 304
WIRE -192 352 -192 304
WIRE -480 480 -480 432
WIRE -320 480 -320 432
WIRE -192 480 -192 432
FLAG -320 480 0
FLAG -192 480 0
FLAG -320 304 +V
FLAG -192 304 -V
FLAG 224 112 +V
FLAG 224 176 -V
FLAG 128 224 0
FLAG -480 480 0
FLAG -480 304 Signal
FLAG -16 128 Signal
FLAG 464 144 Out
SYMBOL OpAmps\\opamp2 224 80 R0
SYMATTR InstName U1
SYMATTR Value op162
SYMBOL voltage -320 336 R0
WINDOW 123 0 0 Left 0
WINDOW 39 0 0 Left 0
SYMATTR InstName V1
SYMATTR Value 12
SYMBOL voltage -192 336 R0
WINDOW 123 0 0 Left 0
WINDOW 39 0 0 Left 0
SYMATTR InstName V2
SYMATTR Value -12
SYMBOL res 272 0 R90
WINDOW 0 0 56 VBottom 2
WINDOW 3 32 56 VTop 2
SYMATTR InstName R1
SYMATTR Value 10k
SYMBOL res 112 112 R90
WINDOW 0 0 56 VBottom 2
WINDOW 3 32 56 VTop 2
SYMATTR InstName R2
SYMATTR Value 1k
SYMBOL voltage -480 336 R0
WINDOW 123 0 0 Left 0
WINDOW 39 0 0 Left 0
SYMATTR InstName V3
SYMATTR Value SINE(0 0.1 1k)
TEXT 136 368 Left 2 !.tran 0 100m
TEXT 136 344 Left 2 !.inc op162.cir
