Version 4.1
SHEET 1 1432 724
WIRE 496 -32 400 -32
WIRE 688 -32 496 -32
WIRE 864 -32 688 -32
WIRE 400 -16 400 -32
WIRE 688 -16 688 -32
WIRE 496 48 496 -32
WIRE 544 48 496 48
WIRE 864 48 864 -32
WIRE 864 48 832 48
WIRE 496 64 496 48
WIRE 864 64 864 48
WIRE 400 80 400 64
WIRE 496 144 496 128
WIRE 544 144 496 144
WIRE 864 144 864 128
WIRE 864 144 832 144
WIRE 496 160 496 144
WIRE 864 160 864 144
WIRE 464 240 448 240
WIRE 544 240 528 240
WIRE 1024 240 832 240
WIRE 864 336 832 336
WIRE 864 352 864 336
WIRE 864 432 864 416
WIRE 864 432 832 432
WIRE 912 432 864 432
WIRE 1024 432 1024 240
WIRE 1024 432 992 432
WIRE 1136 432 1024 432
WIRE 1232 432 1136 432
WIRE 1328 432 1232 432
WIRE 1024 448 1024 432
WIRE 1136 448 1136 432
WIRE 1232 448 1232 432
WIRE 1328 448 1328 432
WIRE 464 528 448 528
WIRE 544 528 528 528
WIRE 1024 528 832 528
WIRE 1136 528 1136 512
WIRE 1136 528 1024 528
WIRE 1024 544 1024 528
WIRE 1232 544 1232 512
WIRE 1328 544 1328 528
WIRE 640 608 640 592
WIRE 736 608 736 592
WIRE 1024 640 1024 624
WIRE 640 704 640 688
FLAG 736 608 0
FLAG 640 704 0
FLAG 400 80 0
FLAG 448 240 0
FLAG 1232 544 0
FLAG 1024 640 0
FLAG 1328 544 0
FLAG 1328 432 OUT
FLAG 400 -32 IN
FLAG 496 160 0
FLAG 864 160 0
FLAG 448 528 0
FLAG 528 528 SS
SYMBOL res 624 592 R0
SYMATTR InstName R1
SYMATTR Value 41.2K
SYMBOL voltage 400 -32 R0
SYMATTR InstName V1
SYMATTR Value 24
SYMBOL cap 528 256 M270
WINDOW 0 32 32 VTop 2
WINDOW 3 0 32 VBottom 2
SYMATTR InstName C1
SYMATTR Value 1µ
SYMBOL ind 896 448 R270
WINDOW 0 32 56 VTop 2
WINDOW 3 5 56 VBottom 2
SYMATTR InstName L1
SYMATTR Value 3.3µ
SYMATTR SpiceLine Rser=10m
SYMBOL cap 848 352 R0
SYMATTR InstName C2
SYMATTR Value .1µ
SYMBOL cap 1216 448 R0
SYMATTR InstName C3
SYMATTR Value 47µ
SYMATTR SpiceLine V=6.3 Irms=0 Rser=0.002 Lser=0 mfg="TDK" pn="C4532X5ROJ47@M" type="X5R"
SYMBOL res 1008 432 R0
SYMATTR InstName R2
SYMATTR Value 1Meg
SYMBOL res 1008 528 R0
SYMATTR InstName R3
SYMATTR Value 243K
SYMBOL cap 1120 448 R0
SYMATTR InstName C4
SYMATTR Value 4.7p
SYMBOL res 1312 432 R0
SYMATTR InstName Rload1
SYMATTR Value 1
SYMBOL cap 480 64 R0
SYMATTR InstName C5
SYMATTR Value 1µ
SYMBOL cap 848 64 R0
SYMATTR InstName C6
SYMATTR Value 1µ
SYMBOL cap 528 544 M270
WINDOW 0 32 32 VTop 2
WINDOW 3 0 32 VBottom 2
SYMATTR InstName C7
SYMATTR Value 1n
SYMBOL LT8640 688 288 R0
SYMATTR InstName U2
TEXT 1200 648 Left 2 !.tran 350u
TEXT 344 448 Left 2 !.ic V(SS)=0.8
