Version 4.1
SHEET 1 1628 680
WIRE 784 -96 608 -96
WIRE 784 -64 784 -96
WIRE 608 0 608 -96
WIRE 608 0 480 0
WIRE 640 0 608 0
WIRE 960 0 928 0
WIRE 480 16 480 0
WIRE 960 96 960 0
WIRE 960 96 928 96
WIRE 480 112 480 96
WIRE 544 192 528 192
WIRE 640 192 608 192
WIRE 1056 192 928 192
WIRE 1136 192 1056 192
WIRE 1056 208 1056 192
WIRE 1136 208 1136 192
WIRE 544 288 528 288
WIRE 640 288 624 288
WIRE 976 288 928 288
WIRE 976 304 976 288
WIRE 1056 304 1056 272
WIRE 1136 304 1136 288
WIRE 832 368 832 352
WIRE 976 400 976 384
FLAG 480 112 0
FLAG 1056 304 0
FLAG 1136 304 0
FLAG 976 400 0
FLAG 832 368 0
FLAG 528 288 0
FLAG 528 192 0
FLAG 1136 192 OUT
FLAG 480 0 IN
SYMBOL PowerProducts\\LTM8065 784 144 R0
SYMATTR InstName U2
SYMBOL voltage 480 0 R0
SYMATTR InstName V1
SYMATTR Value 12
SYMBOL res 960 288 R0
SYMATTR InstName R1
SYMATTR Value 60.4K
SYMBOL cap 1040 208 R0
SYMATTR InstName C1
SYMATTR Value 22µ
SYMBOL res 640 272 R90
WINDOW 0 0 56 VBottom 2
WINDOW 3 32 56 VTop 2
SYMATTR InstName R3
SYMATTR Value 41.2K
SYMBOL cap 608 176 R90
WINDOW 0 0 32 VBottom 2
WINDOW 3 32 32 VTop 2
SYMATTR InstName C2
SYMATTR Value 1n
SYMBOL load2 1136 208 R0
WINDOW 3 44 34 Left 2
WINDOW 123 0 0 Left 0
WINDOW 39 0 0 Left 0
SYMATTR InstName I1
SYMATTR Value PULSE(0.5 {X} 600u 100u 100u 300u)
TEXT 1000 488 Left 2 !.tran 1.5m startup
TEXT 1000 456 Left 2 !.step param X 1 2.5 0.5
TEXT 1000 520 Left 2 !.meas TRAN A pp V(out) from 0.6m to 1.5
